131801254
  -OEChem-08232103233D

 80 83  0     1  0  0  0  0  0999 V2000
    1.6213   -2.9301   -1.6040 O   0  0  0  0  0  0  0  0  0  0  0  0
    6.2349    1.0288   -0.3956 O   0  0  0  0  0  0  0  0  0  0  0  0
   -0.1893   -0.3592    1.1409 C   0  0  2  0  0  0  0  0  0  0  0  0
   -0.9564   -1.4357    0.2911 C   0  0  1  0  0  0  0  0  0  0  0  0
    1.2310   -0.9086    1.4814 C   0  0  1  0  0  0  0  0  0  0  0  0
    2.0665   -1.3709    0.2250 C   0  0  2  0  0  0  0  0  0  0  0  0
   -2.3845   -0.8368    0.2676 C   0  0  2  0  0  0  0  0  0  0  0  0
   -1.1572   -0.2099    2.3367 C   0  0  0  0  0  0  0  0  0  0  0  0
   -0.2619   -1.5800   -1.0595 C   0  0  0  0  0  0  0  0  0  0  0  0
   -2.5705   -0.3176    1.7164 C   0  0  0  0  0  0  0  0  0  0  0  0
    2.8200   -0.1777   -0.4901 C   0  0  1  0  0  0  0  0  0  0  0  0
    1.1716   -2.0585   -0.8537 C   0  0  0  0  0  0  0  0  0  0  0  0
    2.0691   -0.0151    2.4132 C   0  0  0  0  0  0  0  0  0  0  0  0
   -0.1208    1.0563    0.4893 C   0  0  0  0  0  0  0  0  0  0  0  0
   -1.0221   -2.8610    0.9353 C   0  0  0  0  0  0  0  0  0  0  0  0
   -3.5213   -1.7509   -0.1753 C   0  0  1  0  0  0  0  0  0  0  0  0
    3.2664    0.9709    0.4210 C   0  0  0  0  0  0  0  0  0  0  0  0
    3.0664   -2.4465    0.7400 C   0  0  0  0  0  0  0  0  0  0  0  0
    4.0154   -0.6630   -1.3462 C   0  0  0  0  0  0  0  0  0  0  0  0
    2.9400    0.9846    1.7264 C   0  0  0  0  0  0  0  0  0  0  0  0
    4.0389    2.1301   -0.2579 C   0  0  0  0  0  0  0  0  0  0  0  0
    4.6821    0.4725   -2.1181 C   0  0  0  0  0  0  0  0  0  0  0  0
    5.1648    1.5715   -1.1747 C   0  0  2  0  0  0  0  0  0  0  0  0
   -4.8665   -0.9972   -0.0895 C   0  0  0  0  0  0  0  0  0  0  0  0
   -3.2457   -2.2771   -1.5870 C   0  0  0  0  0  0  0  0  0  0  0  0
    4.6725    3.1337    0.7409 C   0  0  0  0  0  0  0  0  0  0  0  0
    3.0356    2.9479   -1.1088 C   0  0  0  0  0  0  0  0  0  0  0  0
   -4.9951    0.2364   -0.9942 C   0  0  0  0  0  0  0  0  0  0  0  0
   -6.3500    0.8817   -0.9067 C   0  0  0  0  0  0  0  0  0  0  0  0
   -6.6653    2.1041   -0.4383 C   0  0  0  0  0  0  0  0  0  0  0  0
   -5.6928    3.1050    0.1175 C   0  0  0  0  0  0  0  0  0  0  0  0
   -8.0971    2.5723   -0.4432 C   0  0  0  0  0  0  0  0  0  0  0  0
    1.0439   -1.7986    2.0975 H   0  0  0  0  0  0  0  0  0  0  0  0
   -2.3629    0.0207   -0.4137 H   0  0  0  0  0  0  0  0  0  0  0  0
   -1.0354    0.7369    2.8743 H   0  0  0  0  0  0  0  0  0  0  0  0
   -1.0106   -1.0091    3.0726 H   0  0  0  0  0  0  0  0  0  0  0  0
   -0.2439   -0.6514   -1.6361 H   0  0  0  0  0  0  0  0  0  0  0  0
   -0.7292   -2.3319   -1.6955 H   0  0  0  0  0  0  0  0  0  0  0  0
   -3.1795   -0.9912    2.3299 H   0  0  0  0  0  0  0  0  0  0  0  0
   -3.0647    0.6606    1.7107 H   0  0  0  0  0  0  0  0  0  0  0  0
    2.1150    0.2549   -1.2090 H   0  0  0  0  0  0  0  0  0  0  0  0
    2.7191   -0.6435    3.0356 H   0  0  0  0  0  0  0  0  0  0  0  0
    1.4117    0.5109    3.1149 H   0  0  0  0  0  0  0  0  0  0  0  0
    0.3629    1.0635   -0.4850 H   0  0  0  0  0  0  0  0  0  0  0  0
    0.4095    1.7623    1.1358 H   0  0  0  0  0  0  0  0  0  0  0  0
   -1.1064    1.5085    0.3399 H   0  0  0  0  0  0  0  0  0  0  0  0
   -1.5488   -2.8664    1.8943 H   0  0  0  0  0  0  0  0  0  0  0  0
   -0.0353   -3.2957    1.1154 H   0  0  0  0  0  0  0  0  0  0  0  0
   -1.5336   -3.5776    0.2861 H   0  0  0  0  0  0  0  0  0  0  0  0
   -3.6142   -2.6118    0.4979 H   0  0  0  0  0  0  0  0  0  0  0  0
    2.5420   -3.2405    1.2851 H   0  0  0  0  0  0  0  0  0  0  0  0
    3.5996   -2.9510   -0.0728 H   0  0  0  0  0  0  0  0  0  0  0  0
    3.8160   -2.0168    1.4122 H   0  0  0  0  0  0  0  0  0  0  0  0
    3.6840   -1.4164   -2.0691 H   0  0  0  0  0  0  0  0  0  0  0  0
    4.7763   -1.1375   -0.7152 H   0  0  0  0  0  0  0  0  0  0  0  0
    3.2653    1.7957    2.3697 H   0  0  0  0  0  0  0  0  0  0  0  0
    3.9844    0.8779   -2.8591 H   0  0  0  0  0  0  0  0  0  0  0  0
    5.5316    0.0591   -2.6755 H   0  0  0  0  0  0  0  0  0  0  0  0
    5.5937    2.3881   -1.7689 H   0  0  0  0  0  0  0  0  0  0  0  0
   -5.0721   -0.7071    0.9482 H   0  0  0  0  0  0  0  0  0  0  0  0
   -5.6655   -1.7049   -0.3519 H   0  0  0  0  0  0  0  0  0  0  0  0
   -4.1781   -2.6353   -2.0403 H   0  0  0  0  0  0  0  0  0  0  0  0
   -2.8445   -1.5067   -2.2529 H   0  0  0  0  0  0  0  0  0  0  0  0
   -2.5847   -3.1455   -1.5804 H   0  0  0  0  0  0  0  0  0  0  0  0
    5.2713    3.8841    0.2106 H   0  0  0  0  0  0  0  0  0  0  0  0
    5.3358    2.6337    1.4557 H   0  0  0  0  0  0  0  0  0  0  0  0
    3.9109    3.6802    1.3093 H   0  0  0  0  0  0  0  0  0  0  0  0
    3.5377    3.7843   -1.6094 H   0  0  0  0  0  0  0  0  0  0  0  0
    2.2403    3.3696   -0.4822 H   0  0  0  0  0  0  0  0  0  0  0  0
    2.5499    2.3524   -1.8874 H   0  0  0  0  0  0  0  0  0  0  0  0
   -4.8430   -0.0571   -2.0397 H   0  0  0  0  0  0  0  0  0  0  0  0
   -4.2107    0.9600   -0.7692 H   0  0  0  0  0  0  0  0  0  0  0  0
    6.9379    0.7558   -1.0094 H   0  0  0  0  0  0  0  0  0  0  0  0
   -7.1598    0.2571   -1.2831 H   0  0  0  0  0  0  0  0  0  0  0  0
   -5.6615    3.9934   -0.5218 H   0  0  0  0  0  0  0  0  0  0  0  0
   -4.6737    2.7246    0.2083 H   0  0  0  0  0  0  0  0  0  0  0  0
   -6.0059    3.4148    1.1205 H   0  0  0  0  0  0  0  0  0  0  0  0
   -8.1952    3.4834   -1.0427 H   0  0  0  0  0  0  0  0  0  0  0  0
   -8.4283    2.7900    0.5776 H   0  0  0  0  0  0  0  0  0  0  0  0
   -8.7803    1.8255   -0.8612 H   0  0  0  0  0  0  0  0  0  0  0  0
  1 12  2  0  0  0  0
  2 23  1  0  0  0  0
  2 73  1  0  0  0  0
  3  4  1  0  0  0  0
  3  5  1  0  0  0  0
  3  8  1  0  0  0  0
  3 14  1  0  0  0  0
  4  7  1  0  0  0  0
  4  9  1  0  0  0  0
  4 15  1  0  0  0  0
  5  6  1  0  0  0  0
  5 13  1  0  0  0  0
  5 33  1  0  0  0  0
  6 11  1  0  0  0  0
  6 12  1  0  0  0  0
  6 18  1  0  0  0  0
  7 10  1  0  0  0  0
  7 16  1  0  0  0  0
  7 34  1  0  0  0  0
  8 10  1  0  0  0  0
  8 35  1  0  0  0  0
  8 36  1  0  0  0  0
  9 12  1  0  0  0  0
  9 37  1  0  0  0  0
  9 38  1  0  0  0  0
 10 39  1  0  0  0  0
 10 40  1  0  0  0  0
 11 17  1  0  0  0  0
 11 19  1  0  0  0  0
 11 41  1  0  0  0  0
 13 20  1  0  0  0  0
 13 42  1  0  0  0  0
 13 43  1  0  0  0  0
 14 44  1  0  0  0  0
 14 45  1  0  0  0  0
 14 46  1  0  0  0  0
 15 47  1  0  0  0  0
 15 48  1  0  0  0  0
 15 49  1  0  0  0  0
 16 24  1  0  0  0  0
 16 25  1  0  0  0  0
 16 50  1  0  0  0  0
 17 20  2  0  0  0  0
 17 21  1  0  0  0  0
 18 51  1  0  0  0  0
 18 52  1  0  0  0  0
 18 53  1  0  0  0  0
 19 22  1  0  0  0  0
 19 54  1  0  0  0  0
 19 55  1  0  0  0  0
 20 56  1  0  0  0  0
 21 23  1  0  0  0  0
 21 26  1  0  0  0  0
 21 27  1  0  0  0  0
 22 23  1  0  0  0  0
 22 57  1  0  0  0  0
 22 58  1  0  0  0  0
 23 59  1  0  0  0  0
 24 28  1  0  0  0  0
 24 60  1  0  0  0  0
 24 61  1  0  0  0  0
 25 62  1  0  0  0  0
 25 63  1  0  0  0  0
 25 64  1  0  0  0  0
 26 65  1  0  0  0  0
 26 66  1  0  0  0  0
 26 67  1  0  0  0  0
 27 68  1  0  0  0  0
 27 69  1  0  0  0  0
 27 70  1  0  0  0  0
 28 29  1  0  0  0  0
 28 71  1  0  0  0  0
 28 72  1  0  0  0  0
 29 30  2  0  0  0  0
 29 74  1  0  0  0  0
 30 31  1  0  0  0  0
 30 32  1  0  0  0  0
 31 75  1  0  0  0  0
 31 76  1  0  0  0  0
 31 77  1  0  0  0  0
 32 78  1  0  0  0  0
 32 79  1  0  0  0  0
 32 80  1  0  0  0  0
M  END
> <PUBCHEM_COMPOUND_CID>
131801254

> <PUBCHEM_CONFORMER_RMSD>
0.8

> <PUBCHEM_CONFORMER_DIVERSEORDER>
5
27
7
21
28
24
26
1
15
14
20
29
3
19
17
25
22
6
9
30
23
8
11
10
4
16
2
13
12
18

> <PUBCHEM_MMFF94_PARTIAL_CHARGES>
19
1 -0.57
11 0.14
12 0.45
13 0.14
17 -0.28
2 -0.68
20 -0.29
21 0.14
23 0.28
28 0.14
29 -0.29
30 -0.28
31 0.14
32 0.14
56 0.15
6 0.06
73 0.4
74 0.15
9 0.06

> <PUBCHEM_EFFECTIVE_ROTOR_COUNT>
5.8

> <PUBCHEM_PHARMACOPHORE_FEATURES>
11
1 1 acceptor
1 2 acceptor
1 2 donor
1 25 hydrophobe
3 21 26 27 hydrophobe
3 30 31 32 hydrophobe
4 16 24 28 29 hydrophobe
5 3 4 7 8 10 rings
6 11 17 19 21 22 23 rings
6 3 4 5 6 9 12 rings
6 5 6 11 13 17 20 rings

> <PUBCHEM_HEAVY_ATOM_COUNT>
32

> <PUBCHEM_ATOM_DEF_STEREO_COUNT>
8

> <PUBCHEM_ATOM_UDEF_STEREO_COUNT>
0

> <PUBCHEM_BOND_DEF_STEREO_COUNT>
0

> <PUBCHEM_BOND_UDEF_STEREO_COUNT>
0

> <PUBCHEM_ISOTOPIC_ATOM_COUNT>
0

> <PUBCHEM_COMPONENT_COUNT>
1

> <PUBCHEM_CACTVS_TAUTO_COUNT>
2

> <PUBCHEM_CONFORMER_ID>
07DB20A600000005

> <PUBCHEM_MMFF94_ENERGY>
122.5832

> <PUBCHEM_FEATURE_SELFOVERLAP>
55.939

> <PUBCHEM_SHAPE_FINGERPRINT>
10498660 4 18341898553568874408
10554248 39 18192691390355162175
10673678 19 18342177778288709661
10675989 125 18339078164689101843
10816530 90 18337383843352446961
11513181 2 17840603500048933029
11578080 2 17313399932118629418
117089 54 8141267374659864697
11796584 16 14404316449090658967
1200032 147 18041005011573638217
12422481 6 13768189619388412539
12596602 18 7853586707218578284
12633257 1 15430588597400790030
13782708 43 10735877275229320405
14251751 18 10447934962175422733
14347329 18 18343298137898873481
14400156 266 18056487141349546430
14931854 50 17560816441495852636
15082195 135 18130790001790537209
15163728 17 18333731308473648827
15183329 4 17988641849218825209
15188451 53 10159695786015497117
15238133 3 18335406998364116888
15475509 35 9655573011372613229
15510800 12 11815606532732698445
15840311 113 18187928314705179909
1813 80 10159161440623713618
19315092 285 8430312459394581175
19377110 9 15357705210454625323
19438510 23 18113617898013079169
20511986 3 17988921236403372444
20567600 247 12751246895284548509
20715895 44 18411135857374380660
20775438 99 15050861218323831765
21033648 29 17749398095384902778
22122407 14 17822859808885288745
22393880 68 17774996951089157807
23559900 14 16844728775936738818
23569914 152 17127625163499831173
2838139 119 18262797487869508956
3886686 26 8139603801324676173
392239 28 15864341501962398341
4058900 60 18335425655607553147
4098825 35 18409732850826157619
513532 50 17489294292008466848
59682541 52 16702302326273575669
633830 44 18260535719938324899
7970288 3 9726265016180018548

> <PUBCHEM_SHAPE_MULTIPOLES>
646.81
15.24
3.59
1.92
22.81
1.07
-0.48
15.86
5.74
0.85
0.63
-1.26
-0.35
0.01

> <PUBCHEM_SHAPE_SELFOVERLAP>
1353.818

> <PUBCHEM_SHAPE_VOLUME>
364

> <PUBCHEM_COORDINATE_TYPE>
2
5
10

$$$$
